Version 4
SHEET 1 1252 896
WIRE -160 -32 -464 -32
WIRE -64 -32 -160 -32
WIRE 144 -32 -64 -32
WIRE 576 -32 416 -32
WIRE 688 -32 576 -32
WIRE 1024 -32 688 -32
WIRE 144 64 144 -32
WIRE -704 128 -1056 128
WIRE -704 144 -704 128
WIRE -64 144 -64 48
WIRE -64 144 -704 144
WIRE 96 144 -64 144
WIRE 576 144 576 48
WIRE 576 144 192 144
WIRE 1168 144 576 144
WIRE 1232 144 1168 144
WIRE 416 272 416 -32
WIRE 1168 304 1168 288
WIRE -160 352 -160 48
WIRE -160 352 -896 352
WIRE 368 352 -160 352
WIRE 688 352 688 48
WIRE 688 352 464 352
WIRE 1248 352 688 352
WIRE -896 368 -896 352
WIRE -1056 448 -1056 208
WIRE -896 448 -1056 448
WIRE -464 560 -464 -32
WIRE 1024 576 1024 -32
WIRE -896 640 -896 448
WIRE -464 640 -896 640
WIRE -464 672 -464 640
WIRE 1024 672 1024 656
WIRE 1168 672 1168 304
WIRE 1168 672 1024 672
WIRE 1024 688 1024 672
FLAG -464 672 0
FLAG 1024 688 0
SYMBOL res -80 -48 R0
SYMATTR InstName R1
SYMATTR Value {Rval}
SYMBOL res -176 -48 R0
SYMATTR InstName R2
SYMATTR Value {Rval}
SYMBOL res 560 -48 R0
SYMATTR InstName R3
SYMATTR Value {Rval}
SYMBOL res 672 -48 R0
SYMATTR InstName R4
SYMATTR Value {Rval}
SYMBOL voltage -464 544 R0
WINDOW 123 0 0 Left 0
WINDOW 39 0 0 Left 0
SYMATTR InstName V1
SYMATTR Value 3.3
SYMBOL voltage 1024 560 R0
WINDOW 123 0 0 Left 0
WINDOW 39 0 0 Left 0
SYMATTR InstName V2
SYMATTR Value 5
SYMBOL voltage -1056 112 R0
WINDOW 123 0 0 Left 0
WINDOW 39 0 0 Left 0
SYMATTR InstName V4
SYMATTR Value PULSE(0 3.3 0 0 0 {{1/{freq}}/2} {1/{freq}})
SYMBOL AutoGenerated\\BSS138 144 112 R90
SYMATTR InstName U1
SYMBOL AutoGenerated\\BSS138 416 320 R90
SYMATTR InstName U2
SYMBOL voltage -896 352 R0
WINDOW 123 0 0 Left 0
WINDOW 39 0 0 Left 0
SYMATTR InstName V3
SYMATTR Value PULSE(0 3.3 0 0 0 {{1/{freq}}/2} {1/{freq}})
SYMBOL AutoGenerated\\DIODE_DF2S5M4CT 1168 224 R270
SYMATTR InstName U3
TEXT -1096 824 Left 2 !.tran 0 {10*{1/{minfreq}}} 0\n.param Rval=1k minfreq=1MEG maxfreq=100MEG\n.step param freq 15MEG 20MEG 1MEG
